@<TRIPOS>MOLECULE
MQ9
  138   139     1     0     0
SMALL
bcc


@<TRIPOS>ATOM
      1 C5         105.3410   120.6270    91.5610 cc       702 MQ9      -0.124400
      2 C5M        105.5330   119.5640    90.4410 c3       702 MQ9      -0.071900
      3 C4         104.7740   121.9570    91.1610 c        702 MQ9       0.569900
      4 O4         104.5020   122.1540    90.0370 o        702 MQ9      -0.514100
      5 C3         104.5450   123.0960    92.2290 ca       702 MQ9      -0.133600
      6 C2         104.8680   122.8650    93.5700 ca       702 MQ9      -0.132600
      7 C1         105.4580   121.4850    93.9990 c        702 MQ9       0.572900
      8 O1         105.7250   121.3040    95.1150 o        702 MQ9      -0.516100
      9 C6         105.6860   120.3830    93.0080 cd       702 MQ9      -0.132400
     10 C3A        104.0240   124.3240    91.8430 ca       702 MQ9      -0.085000
     11 C3B        103.8260   125.3150    92.7900 ca       702 MQ9      -0.117000
     12 C3C        104.1560   125.0740    94.1420 ca       702 MQ9      -0.117000
     13 C3D        104.6710   123.8610    94.5210 ca       702 MQ9      -0.086000
     14 C7         106.2880   119.0680    93.5910 c3       702 MQ9      -0.018000
     15 C8         106.2490   117.8430    92.5940 c2       702 MQ9      -0.173200
     16 C9         107.3780   117.3850    92.0070 c2       702 MQ9      -0.111400
     17 C10        107.2900   116.2040    91.0520 c3       702 MQ9      -0.063900
     18 C11        108.7650   118.0320    92.3030 c3       702 MQ9      -0.044200
     19 C12        109.6560   116.9370    93.0400 c3       702 MQ9      -0.044200
     20 C13        111.1750   117.2790    92.9300 c2       702 MQ9      -0.177200
     21 C14        112.0670   116.3610    93.2850 c2       702 MQ9      -0.113400
     22 C15        113.5600   116.6550    93.1940 c3       702 MQ9      -0.058900
     23 C16        111.5890   114.9780    93.7990 c3       702 MQ9      -0.043200
     24 C17        111.8950   113.9000    92.6670 c3       702 MQ9      -0.043200
     25 C18        113.2580   113.1980    92.9590 c2       702 MQ9      -0.163200
     26 C19        113.3800   111.8380    92.8250 c2       702 MQ9      -0.127400
     27 C20        114.7390   111.1700    93.1260 c3       702 MQ9      -0.056900
     28 C21        112.1560   110.9580    92.3700 c3       702 MQ9      -0.040200
     29 C22        111.9130   111.0690    90.8290 c3       702 MQ9      -0.040200
     30 C23        110.9530   112.2480    90.5400 c2       702 MQ9      -0.169200
     31 C24        109.6580   112.1510    90.7630 c2       702 MQ9      -0.128400
     32 C25        109.0610   110.8510    91.3270 c3       702 MQ9      -0.057900
     33 C26        108.7550   113.3650    90.4760 c3       702 MQ9      -0.040200
     34 C27        107.5620   113.0380    89.5370 c3       702 MQ9      -0.044200
     35 C28        107.1700   114.3620    88.8730 c2       702 MQ9      -0.173200
     36 C29        105.8960   114.6860    88.6020 c2       702 MQ9      -0.125400
     37 C30        104.7820   113.7390    88.9400 c3       702 MQ9      -0.061900
     38 C31        105.5960   116.0560    87.9360 c3       702 MQ9      -0.040200
     39 C32        104.0340   116.2160    87.6660 c3       702 MQ9      -0.044200
     40 C33        103.7600   115.6920    86.2460 c2       702 MQ9      -0.181200
     41 C34        104.0440   116.4530    85.1730 c2       702 MQ9      -0.118400
     42 C35        104.6400   117.8710    85.3490 c3       702 MQ9      -0.058900
     43 C36        103.7620   115.8900    83.7470 c3       702 MQ9      -0.040200
     44 C37        105.1170   115.6380    82.9890 c3       702 MQ9      -0.043200
     45 C38        105.0420   116.3160    81.5750 c2       702 MQ9      -0.174200
     46 C39        105.1310   115.5730    80.4220 c2       702 MQ9      -0.112400
     47 C40        105.0540   116.2810    79.0800 c3       702 MQ9      -0.058900
     48 C41        105.3260   114.0580    80.4650 c3       702 MQ9      -0.040200
     49 C42        104.3160   113.3600    81.4650 c3       702 MQ9      -0.044200
     50 C43        102.9690   113.0290    80.7350 c2       702 MQ9      -0.167200
     51 C44        102.7330   111.7930    80.2070 c2       702 MQ9      -0.126400
     52 C45        101.4110   111.5100    79.5040 c3       702 MQ9      -0.055900
     53 C46        103.7900   110.6660    80.3030 c3       702 MQ9      -0.040200
     54 C47        103.2050   109.4830    81.1880 c3       702 MQ9      -0.043200
     55 C48        102.5640   108.4050    80.2920 c2       702 MQ9      -0.174200
     56 C49        103.3170   107.6350    79.5010 c2       702 MQ9      -0.123400
     57 C50        104.8470   107.8230    79.4740 c3       702 MQ9      -0.060900
     58 C51        102.6510   106.5590    78.6130 c3       702 MQ9      -0.060900
     59 H5M1       105.9500   118.6530    90.8710 hc       702 MQ9       0.061700
     60 H5M2       104.5700   119.3410    89.9820 hc       702 MQ9       0.061700
     61 H5M3       106.2140   119.9520    89.6840 hc       702 MQ9       0.061700
     62 H3A        103.7750   124.5030    90.8080 ha       702 MQ9       0.160000
     63 H3B        103.4200   126.2710    92.4940 ha       702 MQ9       0.142000
     64 H3C        104.0030   125.8460    94.8810 ha       702 MQ9       0.142000
     65 H3D        104.9240   123.6780    95.5550 ha       702 MQ9       0.159000
     66 H71        105.7610   118.8050    94.5080 hc       702 MQ9       0.074200
     67 H72        107.3170   119.2480    93.9020 hc       702 MQ9       0.074200
     68 H8         105.3010   117.3700    92.3840 ha       702 MQ9       0.125000
     69 H101       108.2840   115.9680    90.6730 hc       702 MQ9       0.043367
     70 H102       106.8880   115.3390    91.5790 hc       702 MQ9       0.043367
     71 H103       106.6350   116.4580    90.2190 hc       702 MQ9       0.043367
     72 H111       108.6310   118.8920    92.9590 hc       702 MQ9       0.047200
     73 H112       109.2410   118.3150    91.3640 hc       702 MQ9       0.047200
     74 H121       109.4710   115.9590    92.5950 hc       702 MQ9       0.054200
     75 H122       109.3710   116.8850    94.0910 hc       702 MQ9       0.054200
     76 H13        111.5050   118.2430    92.5720 ha       702 MQ9       0.118000
     77 H151       114.1230   115.7840    93.5270 hc       702 MQ9       0.039700
     78 H152       113.8230   116.8840    92.1610 hc       702 MQ9       0.039700
     79 H153       113.8020   117.5080    93.8280 hc       702 MQ9       0.039700
     80 H161       110.5160   115.0120    93.9870 hc       702 MQ9       0.049200
     81 H162       112.1370   114.7180    94.7050 hc       702 MQ9       0.049200
     82 H171       111.9420   114.3950    91.6970 hc       702 MQ9       0.052200
     83 H172       111.0990   113.1550    92.6500 hc       702 MQ9       0.052200
     84 H18        114.1080   113.7890    93.2680 ha       702 MQ9       0.121000
     85 H201       114.6580   110.0940    92.9700 hc       702 MQ9       0.039033
     86 H202       115.5000   111.5770    92.4600 hc       702 MQ9       0.039033
     87 H203       115.0200   111.3660    94.1610 hc       702 MQ9       0.039033
     88 H211       111.2610   111.2790    92.9020 hc       702 MQ9       0.046200
     89 H212       112.3400   109.9170    92.6340 hc       702 MQ9       0.046200
     90 H221       111.4700   110.1420    90.4640 hc       702 MQ9       0.047200
     91 H222       112.8630   111.2420    90.3230 hc       702 MQ9       0.047200
     92 H23        111.3660   113.1650    90.1470 ha       702 MQ9       0.131000
     93 H251       107.9830   110.9650    91.4410 hc       702 MQ9       0.040367
     94 H252       109.2680   110.0280    90.6430 hc       702 MQ9       0.040367
     95 H253       109.5080   110.6370    92.2980 hc       702 MQ9       0.040367
     96 H261       109.3520   114.1640    90.0370 hc       702 MQ9       0.045200
     97 H262       108.3760   113.7650    91.4170 hc       702 MQ9       0.045200
     98 H271       106.7250   112.6690    90.1300 hc       702 MQ9       0.051700
     99 H272       107.8860   112.3320    88.7730 hc       702 MQ9       0.051700
    100 H28        107.9670   115.0470    88.6220 ha       702 MQ9       0.121000
    101 H301       103.8290   114.1780    88.6450 hc       702 MQ9       0.042033
    102 H302       104.9290   112.8000    88.4070 hc       702 MQ9       0.042033
    103 H303       104.7780   113.5500    90.0140 hc       702 MQ9       0.042033
    104 H311       106.1370   116.1270    86.9920 hc       702 MQ9       0.045700
    105 H312       105.9360   116.8590    88.5900 hc       702 MQ9       0.045700
    106 H321       103.7620   117.2700    87.7220 hc       702 MQ9       0.050700
    107 H322       103.4780   115.6170    88.3870 hc       702 MQ9       0.050700
    108 H33        103.3370   114.7070    86.1130 ha       702 MQ9       0.122000
    109 H351       104.7980   118.3230    84.3700 hc       702 MQ9       0.041367
    110 H352       103.9500   118.4870    85.9260 hc       702 MQ9       0.041367
    111 H353       105.5920   117.8030    85.8750 hc       702 MQ9       0.041367
    112 H361       103.1600   116.6050    83.1870 hc       702 MQ9       0.048700
    113 H362       103.2120   114.9520    83.8290 hc       702 MQ9       0.048700
    114 H371       105.2720   114.5660    82.8700 hc       702 MQ9       0.047700
    115 H372       105.9380   116.0750    83.5580 hc       702 MQ9       0.047700
    116 H38        104.9180   117.3870    81.5190 ha       702 MQ9       0.118000
    117 H401       105.1410   115.5490    78.2770 hc       702 MQ9       0.040033
    118 H402       104.0990   116.8000    78.9970 hc       702 MQ9       0.040033
    119 H403       105.8670   117.0030    79.0020 hc       702 MQ9       0.040033
    120 H411       106.3490   113.8320    80.7670 hc       702 MQ9       0.045700
    121 H412       105.1890   113.6460    79.4650 hc       702 MQ9       0.045700
    122 H421       104.1190   114.0250    82.3060 hc       702 MQ9       0.051200
    123 H422       104.7590   112.4390    81.8450 hc       702 MQ9       0.051200
    124 H43        102.2200   113.8030    80.6540 ha       702 MQ9       0.123000
    125 H451       101.4010   110.4790    79.1490 hc       702 MQ9       0.039700
    126 H452       100.5880   111.6620    80.2020 hc       702 MQ9       0.039700
    127 H453       101.2970   112.1860    78.6570 hc       702 MQ9       0.039700
    128 H461       104.6950   111.0560    80.7700 hc       702 MQ9       0.046200
    129 H462       104.0160   110.2940    79.3040 hc       702 MQ9       0.046200
    130 H471       102.4550   109.8790    81.8730 hc       702 MQ9       0.048700
    131 H472       104.0080   109.0370    81.7740 hc       702 MQ9       0.048700
    132 H48        101.4920   108.2760    80.3090 ha       702 MQ9       0.123000
    133 H501       105.2890   107.1120    78.7760 hc       702 MQ9       0.041033
    134 H502       105.0830   108.8380    79.1560 hc       702 MQ9       0.041033
    135 H503       105.2520   107.6520    80.4710 hc       702 MQ9       0.041033
    136 H511       103.4170   106.0340    78.0420 hc       702 MQ9       0.041033
    137 H512       102.1160   105.8480    79.2420 hc       702 MQ9       0.041033
    138 H513       101.9500   107.0360    77.9280 hc       702 MQ9       0.041033
@<TRIPOS>BOND
     1     1     2 1   
     2     1     3 1   
     3     1     9 2   
     4     2    59 1   
     5     2    60 1   
     6     2    61 1   
     7     3     4 2   
     8     3     5 1   
     9     5     6 ar  
    10     5    10 ar  
    11     6     7 1   
    12     6    13 ar  
    13     7     8 2   
    14     7     9 1   
    15     9    14 1   
    16    10    11 ar  
    17    10    62 1   
    18    11    12 ar  
    19    11    63 1   
    20    12    13 ar  
    21    12    64 1   
    22    13    65 1   
    23    14    15 1   
    24    14    66 1   
    25    14    67 1   
    26    15    16 2   
    27    15    68 1   
    28    16    17 1   
    29    16    18 1   
    30    17    69 1   
    31    17    70 1   
    32    17    71 1   
    33    18    19 1   
    34    18    72 1   
    35    18    73 1   
    36    19    20 1   
    37    19    74 1   
    38    19    75 1   
    39    20    21 2   
    40    20    76 1   
    41    21    22 1   
    42    21    23 1   
    43    22    77 1   
    44    22    78 1   
    45    22    79 1   
    46    23    24 1   
    47    23    80 1   
    48    23    81 1   
    49    24    25 1   
    50    24    82 1   
    51    24    83 1   
    52    25    26 2   
    53    25    84 1   
    54    26    27 1   
    55    26    28 1   
    56    27    85 1   
    57    27    86 1   
    58    27    87 1   
    59    28    29 1   
    60    28    88 1   
    61    28    89 1   
    62    29    30 1   
    63    29    90 1   
    64    29    91 1   
    65    30    31 2   
    66    30    92 1   
    67    31    32 1   
    68    31    33 1   
    69    32    93 1   
    70    32    94 1   
    71    32    95 1   
    72    33    34 1   
    73    33    96 1   
    74    33    97 1   
    75    34    35 1   
    76    34    98 1   
    77    34    99 1   
    78    35    36 2   
    79    35   100 1   
    80    36    37 1   
    81    36    38 1   
    82    37   101 1   
    83    37   102 1   
    84    37   103 1   
    85    38    39 1   
    86    38   104 1   
    87    38   105 1   
    88    39    40 1   
    89    39   106 1   
    90    39   107 1   
    91    40    41 2   
    92    40   108 1   
    93    41    42 1   
    94    41    43 1   
    95    42   109 1   
    96    42   110 1   
    97    42   111 1   
    98    43    44 1   
    99    43   112 1   
   100    43   113 1   
   101    44    45 1   
   102    44   114 1   
   103    44   115 1   
   104    45    46 2   
   105    45   116 1   
   106    46    47 1   
   107    46    48 1   
   108    47   117 1   
   109    47   118 1   
   110    47   119 1   
   111    48    49 1   
   112    48   120 1   
   113    48   121 1   
   114    49    50 1   
   115    49   122 1   
   116    49   123 1   
   117    50    51 2   
   118    50   124 1   
   119    51    52 1   
   120    51    53 1   
   121    52   125 1   
   122    52   126 1   
   123    52   127 1   
   124    53    54 1   
   125    53   128 1   
   126    53   129 1   
   127    54    55 1   
   128    54   130 1   
   129    54   131 1   
   130    55    56 2   
   131    55   132 1   
   132    56    57 1   
   133    56    58 1   
   134    57   133 1   
   135    57   134 1   
   136    57   135 1   
   137    58   136 1   
   138    58   137 1   
   139    58   138 1   
@<TRIPOS>SUBSTRUCTURE
     1 MQ9         1 TEMP              0 ****  ****    0 ROOT
